Global frequency set at 1000000000000 ticks per second
gem5 Simulator System.  https://www.gem5.org
gem5 is copyrighted software; use the --copyright option for details.

gem5 version 23.0.0.1
gem5 compiled Sep 26 2025 09:10:32
gem5 started Oct  5 2025 13:09:06
gem5 executing on aff071f6bc48, pid 1336
command line: /gem5/build/X86/gem5.opt --outdir=./output/compute/pred_perceptron ./src/benchmark.py --branch-pred=perceptron --binary=./bin/compute --binary-args=1048576

ROI started
ROI ended
